24250
  -OEChem-04122510523D

 30 29  0     0  0  0  0  0  0999 V2000
    5.6439   -0.3158   -0.0336 N   0  0  0  0  0  0  0  0  0  0  0  0
   -5.6450    0.3110   -0.0171 N   0  0  0  0  0  0  0  0  0  0  0  0
    0.6430   -0.4129    0.0152 C   0  0  0  0  0  0  0  0  0  0  0  0
   -0.6428    0.4157    0.0147 C   0  0  0  0  0  0  0  0  0  0  0  0
    1.8832    0.4835    0.0153 C   0  0  0  0  0  0  0  0  0  0  0  0
   -1.8826   -0.4807   -0.0185 C   0  0  0  0  0  0  0  0  0  0  0  0
    3.1686   -0.3489    0.0452 C   0  0  0  0  0  0  0  0  0  0  0  0
   -3.1689    0.3505    0.0102 C   0  0  0  0  0  0  0  0  0  0  0  0
    4.4375    0.5026   -0.0249 C   0  0  0  0  0  0  0  0  0  0  0  0
   -4.4369   -0.5050   -0.0065 C   0  0  0  0  0  0  0  0  0  0  0  0
    0.6614   -1.0640   -0.8672 H   0  0  0  0  0  0  0  0  0  0  0  0
    0.6589   -1.0639    0.8979 H   0  0  0  0  0  0  0  0  0  0  0  0
   -0.6699    1.0498    0.9093 H   0  0  0  0  0  0  0  0  0  0  0  0
   -0.6505    1.0834   -0.8554 H   0  0  0  0  0  0  0  0  0  0  0  0
    1.8774    1.1175   -0.8795 H   0  0  0  0  0  0  0  0  0  0  0  0
    1.8606    1.1504    0.8854 H   0  0  0  0  0  0  0  0  0  0  0  0
   -1.8668   -1.1008   -0.9228 H   0  0  0  0  0  0  0  0  0  0  0  0
   -1.8691   -1.1610    0.8415 H   0  0  0  0  0  0  0  0  0  0  0  0
    3.1845   -0.9547    0.9603 H   0  0  0  0  0  0  0  0  0  0  0  0
    3.1587   -1.0508   -0.7988 H   0  0  0  0  0  0  0  0  0  0  0  0
   -3.1768    1.0276   -0.8537 H   0  0  0  0  0  0  0  0  0  0  0  0
   -3.1701    0.9825    0.9077 H   0  0  0  0  0  0  0  0  0  0  0  0
    4.4772    1.1851    0.8309 H   0  0  0  0  0  0  0  0  0  0  0  0
    4.4245    1.1198   -0.9298 H   0  0  0  0  0  0  0  0  0  0  0  0
   -4.4532   -1.1607    0.8713 H   0  0  0  0  0  0  0  0  0  0  0  0
   -4.4379   -1.1460   -0.8948 H   0  0  0  0  0  0  0  0  0  0  0  0
    5.6142   -0.9582   -0.8247 H   0  0  0  0  0  0  0  0  0  0  0  0
    5.6635   -0.9022    0.8001 H   0  0  0  0  0  0  0  0  0  0  0  0
   -5.6707    0.8958    0.8172 H   0  0  0  0  0  0  0  0  0  0  0  0
   -6.4631   -0.2948    0.0326 H   0  0  0  0  0  0  0  0  0  0  0  0
  1  9  1  0  0  0  0
  1 27  1  0  0  0  0
  1 28  1  0  0  0  0
  2 10  1  0  0  0  0
  2 29  1  0  0  0  0
  2 30  1  0  0  0  0
  3  4  1  0  0  0  0
  3  5  1  0  0  0  0
  3 11  1  0  0  0  0
  3 12  1  0  0  0  0
  4  6  1  0  0  0  0
  4 13  1  0  0  0  0
  4 14  1  0  0  0  0
  5  7  1  0  0  0  0
  5 15  1  0  0  0  0
  5 16  1  0  0  0  0
  6  8  1  0  0  0  0
  6 17  1  0  0  0  0
  6 18  1  0  0  0  0
  7  9  1  0  0  0  0
  7 19  1  0  0  0  0
  7 20  1  0  0  0  0
  8 10  1  0  0  0  0
  8 21  1  0  0  0  0
  8 22  1  0  0  0  0
  9 23  1  0  0  0  0
  9 24  1  0  0  0  0
 10 25  1  0  0  0  0
 10 26  1  0  0  0  0
M  END
> <PUBCHEM_COMPOUND_CID>
24250

> <PUBCHEM_CONFORMER_RMSD>
0.6

> <PUBCHEM_CONFORMER_DIVERSEORDER>
1
194
218
14
131
3
214
9
152
161
48
196
97
51
12
203
4
213
193
117
78
168
178
113
37
110
2
164
187
106
163
5
192
102
170
18
171
186
82
183
71
107
174
24
88
20
77
197
60
172
208
21
93
94
16
121
204
6
212
28
36
30
206
148
44
57
129
145
118
169
11
139
166
72
217
83
8
122
176
146
159
182
27
202
7
205
144
50
26
209
143
210
81
58
133
132
184
167
142
89
32
165
150
15
59
100
180
61
65
63
79
17
185
46
189
47
188
38
128
173
154
49
125
85
162
56
211
34
52
134
141
43
200
31
19
160
69
55
90
138
108
119
75
130
92
198
201
45
175
216
207
101
95
41
215
22
181
126
76
199
149
177
70
191
120
179
153
195
66
64
87
33
156
68
99
112
190
13
84
109
111
98
96
127
39
73
10
62
53
103
158
23
80
151
123
67
115
136
29
135
40
124
155
35
91
140
137
25
157
74
114
54
105
104
42
147
116
86

> <PUBCHEM_MMFF94_PARTIAL_CHARGES>
8
1 -0.99
10 0.27
2 -0.99
27 0.36
28 0.36
29 0.36
30 0.36
9 0.27

> <PUBCHEM_EFFECTIVE_ROTOR_COUNT>
7

> <PUBCHEM_PHARMACOPHORE_FEATURES>
6
1 1 cation
1 1 donor
1 2 cation
1 2 donor
3 3 5 7 hydrophobe
3 4 6 8 hydrophobe

> <PUBCHEM_HEAVY_ATOM_COUNT>
10

> <PUBCHEM_ATOM_DEF_STEREO_COUNT>
0

> <PUBCHEM_ATOM_UDEF_STEREO_COUNT>
0

> <PUBCHEM_BOND_DEF_STEREO_COUNT>
0

> <PUBCHEM_BOND_UDEF_STEREO_COUNT>
0

> <PUBCHEM_ISOTOPIC_ATOM_COUNT>
0

> <PUBCHEM_COMPONENT_COUNT>
1

> <PUBCHEM_CACTVS_TAUTO_COUNT>
1

> <PUBCHEM_CONFORMER_ID>
00005EBA00000001

> <PUBCHEM_MMFF94_ENERGY>
-7.9815

> <PUBCHEM_FEATURE_SELFOVERLAP>
30.446

> <PUBCHEM_SHAPE_FINGERPRINT>
11062470 55 18410575093253013507
14123238 8 18410573989446418455
17834072 33 18342457096674905396
17834076 25 18410293613997185803
187816 3 15791731901495146857
20645477 70 18200315407971276742
20719005 15 18411419514125568008
22485316 2 18411134744772090095
23402539 116 18131063844831876661
366044 4 18410573998052703571
42788 4 18410292518970468357
8209 1 18411136939848226220

> <PUBCHEM_SHAPE_MULTIPOLES>
195.83
12.76
0.78
0.6
0.01
0
0
-0.01
0.15
0
0
0
0
-0.01

> <PUBCHEM_SHAPE_SELFOVERLAP>
342.15

> <PUBCHEM_SHAPE_VOLUME>
127

> <PUBCHEM_COORDINATE_TYPE>
2
5
10
